Version 4
SHEET 1 880 680
WIRE 352 240 304 240
WIRE 352 336 352 240
FLAG 352 336 0
SYMBOL AutoGenerated\\ADA4950 240 176 R0
SYMATTR InstName U1
